feeders/1_REDE2_1/008_segmentoBT.dss
New Line.SBT_21951 phases=2 bus1=BT49551.1.4 bus2=BT49561.1.4 linecode=60_2 length=0.10521 units=km
New Line.SBT_22586 phases=3 bus1=BT21781.1.2.4 bus2=BT21791.1.2.4 linecode=44_3 length=0.05869 units=km
New Line.SBT_27354 phases=3 bus1=ET11_130.1.2.4 bus2=BT21781.1.2.4 linecode=44_3 length=0.10414 units=km
New Line.SBT_6046 phases=2 bus1=BT49541.1.4 bus2=BT49551.1.4 linecode=60_2 length=0.07734 units=km
New Line.SBT_6047 phases=2 bus1=BT49561.1.4 bus2=BT49571.1.4 linecode=60_2 length=0.07267 units=km
New Line.SBT_7151 phases=4 bus1=ET11_130.1.2.3.4 bus2=BT49531.1.2.3.4 linecode=73_4 length=0.08011 units=km
New Line.SBT_7399 phases=4 bus1=BT49531.1.2.3.4 bus2=BT49541.1.2.3.4 linecode=73_4 length=0.07245 units=km
New Line.SBT_5863 phases=3 bus1=BT21921.1.2.4 bus2=BT21911.1.2.4 linecode=59_3 length=0.08846 units=km
New Line.SBT_5864 phases=3 bus1=BT21911.1.2.4 bus2=BT21901.1.2.4 linecode=59_3 length=0.09563 units=km
New Line.SBT_6048 phases=3 bus1=ET11_131.1.2.4 bus2=BT21951.1.2.4 linecode=44_3 length=0.07841 units=km
New Line.SBT_6049 phases=2 bus1=BT21921.1.4 bus2=BT21931.1.4 linecode=60_2 length=0.06357 units=km
New Line.SBT_6076 phases=3 bus1=BT61371.1.2.4 bus2=BT61381.1.2.4 linecode=44_3 length=0.04924 units=km
New Line.SBT_28835 phases=2 bus1=BT21951.1.4 bus2=BT21961.1.4 linecode=60_2 length=0.05108 units=km
New Line.SBT_21952 phases=3 bus1=ET11_131.1.2.4 bus2=BT21921.1.2.4 linecode=59_3 length=0.09155 units=km
New Line.SBT_21953 phases=3 bus1=BT21951.1.2.4 bus2=BT61341.1.2.4 linecode=44_3 length=0.07841 units=km
New Line.SBT_21968 phases=3 bus1=BT61351.1.2.4 bus2=BT61361.1.2.4 linecode=44_3 length=0.09627 units=km
New Line.SBT_21969 phases=3 bus1=BT61361.1.2.4 bus2=BT61371.1.2.4 linecode=44_3 length=0.08603 units=km
New Line.SBT_21849 phases=3 bus1=BT61341.1.2.4 bus2=BT61351.1.2.4 linecode=44_3 length=0.0778 units=km
New Line.SBT_21855 phases=2 bus1=BT42491.1.4 bus2=BT42501.1.4 linecode=60_2 length=0.10058 units=km
New Line.SBT_29861 phases=3 bus1=BT755641.1.2.4 bus2=BT42491.1.2.4 linecode=44_3 length=0.0392 units=km
New Line.SBT_29862 phases=3 bus1=ET11_132.1.2.4 bus2=BT755641.1.2.4 linecode=44_3 length=0.03027 units=km
New Line.SBT_5870 phases=3 bus1=ET11_132.1.2.4 bus2=BT42471.1.2.4 linecode=44_3 length=0.09956 units=km
New Line.SBT_5871 phases=2 bus1=BT42471.2.4 bus2=BT322201.2.4 linecode=60_2 length=0.06168 units=km
New Line.SBT_7384 phases=2 bus1=BT42501.1.4 bus2=BT62131.1.4 linecode=60_2 length=0.09148 units=km
New Line.SBT_7385 phases=2 bus1=ET11_133.2.4 bus2=BT62321.2.4 linecode=60_2 length=0.05423 units=km
New Line.SBT_7386 phases=2 bus1=BT62331.2.4 bus2=BT62341.2.4 linecode=60_2 length=0.15182 units=km
New Line.SBT_7387 phases=2 bus1=BT62341.2.4 bus2=BT62351.2.4 linecode=60_2 length=0.05503 units=km
New Line.SBT_22728 phases=2 bus1=BT62321.2.4 bus2=BT62331.2.4 linecode=60_2 length=0.08443 units=km
New Line.SBT_21137 phases=3 bus1=ET11_2597.1.2.4 bus2=BT48691.1.2.4 linecode=44_3 length=0.04569 units=km
New Line.SBT_22840 phases=4 bus1=BT56871.1.2.3.4 bus2=BT56881.1.2.3.4 linecode=97_4 length=0.04675 units=km
New Line.SBT_7584 phases=4 bus1=ET11_305.1.2.3.4 bus2=BT56871.1.2.3.4 linecode=97_4 length=0.04031 units=km
New Line.SBT_18140 phases=3 bus1=BT21891.1.2.4 bus2=BT21902.1.2.4 linecode=59_3 length=0.08769 units=km
New Line.SBT_29015 phases=3 bus1=ET11_4955.1.2.4 bus2=BT21891.1.2.4 linecode=59_3 length=0.1005 units=km
New Line.SBT_22669 phases=3 bus1=ET16_1095.1.2.4 bus2=BT37551.1.2.4 linecode=59_3 length=0.09297 units=km
New Line.SBT_7295 phases=2 bus1=ET16_1095.1.4 bus2=BT37541.1.4 linecode=60_2 length=0.07747 units=km
New Line.SBT_5340 phases=3 bus1=ET16_1140.1.2.4 bus2=BT13981.1.2.4 linecode=44_3 length=0.08709 units=km
New Line.SBT_5542 phases=3 bus1=ET16_1140.1.2.4 bus2=BT14001.1.2.4 linecode=44_3 length=0.1387 units=km
New Line.SBT_5543 phases=3 bus1=BT14011.1.2.4 bus2=BT14022.1.2.4 linecode=44_3 length=0.12485 units=km
New Line.SBT_21666 phases=3 bus1=BT13981.1.2.4 bus2=BT13991.1.2.4 linecode=44_3 length=0.101 units=km
New Line.SBT_21667 phases=3 bus1=BT14001.1.2.4 bus2=BT14011.1.2.4 linecode=44_3 length=0.0882 units=km
New Line.SBT_29026 phases=3 bus1=BT17971.1.2.4 bus2=BT17981.1.2.4 linecode=91_3 length=0.07117 units=km
New Line.SBT_5820 phases=3 bus1=ET16_1141.1.2.4 bus2=BT17971.1.2.4 linecode=91_3 length=0.12945 units=km
New Line.SBT_4716 phases=2 bus1=BT366851.1.4 bus2=BT366861.1.4 linecode=60_2 length=0.13078 units=km
New Line.SBT_6095 phases=2 bus1=BT7351.1.4 bus2=BT366841.1.4 linecode=60_2 length=0.08122 units=km
New Line.SBT_5830 phases=3 bus1=ET16_1143.1.2.4 bus2=BT7351.1.2.4 linecode=44_3 length=0.05445 units=km
New Line.SBT_28279 phases=4 bus1=ET16_1143.1.2.3.4 bus2=BT679291.1.2.3.4 linecode=73_4 length=0.0672 units=km
New Line.SBT_18049 phases=2 bus1=BT366841.1.4 bus2=BT366851.1.4 linecode=60_2 length=0.11261 units=km
New Line.SBT_20214 phases=4 bus1=BT679291.1.2.3.4 bus2=BT675551.1.2.3.4 linecode=73_4 length=0.04272 units=km
New Line.SBT_12815 phases=3 bus1=BT71931.1.2.4 bus2=BT617961.1.2.4 linecode=44_3 length=0.05166 units=km
New Line.SBT_12816 phases=3 bus1=BT617961.1.2.4 bus2=BT617971.1.2.4 linecode=44_3 length=0.06868 units=km
New Line.SBT_21702 phases=2 bus1=BT27741.1.4 bus2=BT27751.1.4 linecode=60_2 length=0.12903 units=km
New Line.SBT_21191 phases=3 bus1=ET16_1144.1.2.4 bus2=BT27741.1.2.4 linecode=44_3 length=0.08797 units=km
New Line.SBT_21224 phases=3 bus1=BT27791.1.2.4 bus2=BT27801.1.2.4 linecode=44_3 length=0.09519 units=km
New Line.SBT_27826 phases=2 bus1=BT27751.1.4 bus2=BT665791.1.4 linecode=60_2 length=0.0775 units=km
New Line.SBT_4772 phases=3 bus1=ET16_1144.1.2.4 bus2=BT27791.1.2.4 linecode=44_3 length=0.08549 units=km
New Line.SBT_4773 phases=3 bus1=BT27741.1.2.4 bus2=BT71941.1.2.4 linecode=44_3 length=0.08006 units=km
New Line.SBT_4774 phases=3 bus1=BT71941.1.2.4 bus2=BT71931.1.2.4 linecode=44_3 length=0.11512 units=km
New Line.SBT_5607 phases=2 bus1=BT665791.1.4 bus2=BT27761.1.4 linecode=60_2 length=0.06294 units=km
New Line.SBT_7351 phases=4 bus1=BT3491.1.2.3.4 bus2=BT3471.1.2.3.4 linecode=92_4 length=0.10424 units=km
New Line.SBT_25781 phases=4 bus1=BT3481.1.2.3.4 bus2=BT617951.1.2.3.4 linecode=92_4 length=0.0686 units=km
New Line.SBT_28762 phases=4 bus1=BT3491.1.2.3.4 bus2=BT3501.1.2.3.4 linecode=97_4 length=0.10445 units=km
New Line.SBT_31047 phases=2 bus1=ET16_1585.1.4 bus2=BT3521.1.4 linecode=60_2 length=0.08222 units=km
New Line.SBT_31048 phases=2 bus1=BT3521.1.4 bus2=BT3541.1.4 linecode=60_2 length=0.09742 units=km
New Line.SBT_31049 phases=2 bus1=BT3541.1.4 bus2=BT3571.1.4 linecode=60_2 length=0.06503 units=km
New Line.SBT_22703 phases=4 bus1=ET16_1585.1.2.3.4 bus2=BT3491.1.2.3.4 linecode=92_4 length=0.07806 units=km
New Line.SBT_22706 phases=4 bus1=BT3471.1.2.3.4 bus2=BT3481.1.2.3.4 linecode=92_4 length=0.10422 units=km
New Line.SBT_22747 phases=2 bus1=ET16_2139.2.4 bus2=BT48451.2.4 linecode=62_2 length=0.09483 units=km
New Line.SBT_22748 phases=3 bus1=BT48431.1.2.4 bus2=BT48441.1.2.4 linecode=59_3 length=0.0797 units=km
New Line.SBT_15045 phases=3 bus1=BT48441.1.2.4 bus2=BT424151.1.2.4 linecode=59_3 length=0.04438 units=km
New Line.SBT_7427 phases=3 bus1=ET16_2139.1.2.4 bus2=BT48431.1.2.4 linecode=59_3 length=0.07912 units=km
New Line.SBT_7428 phases=2 bus1=BT48451.2.4 bus2=BT48461.2.4 linecode=62_2 length=0.0697 units=km
New Line.SBT_6252 phases=4 bus1=BT356531.1.2.3.4 bus2=BT356541.1.2.3.4 linecode=97_4 length=0.1186 units=km
New Line.SBT_6264 phases=4 bus1=BT360141.1.2.3.4 bus2=BT37751.1.2.3.4 linecode=97_4 length=0.10015 units=km
New Line.SBT_6494 phases=4 bus1=ET16_299.1.2.3.4 bus2=BT356531.1.2.3.4 linecode=97_4 length=0.10802 units=km
New Line.SBT_22076 phases=4 bus1=BT356541.1.2.3.4 bus2=BT360141.1.2.3.4 linecode=97_4 length=0.10631 units=km
New Line.SBT_35588 phases=4 bus1=ET16_299.1.2.3.4 bus2=BT48321.1.2.3.4 linecode=73_4 length=0.13716 units=km
New Line.SBT_6273 phases=2 bus1=ET16_300.1.4 bus2=BT18511.1.4 linecode=60_2 length=0.13534 units=km
New Line.SBT_6276 phases=3 bus1=ET16_301.1.2.4 bus2=BT72081.1.2.4 linecode=59_3 length=0.04111 units=km
New Line.SBT_6286 phases=3 bus1=ET16_301.1.2.4 bus2=BT3581.1.2.4 linecode=91_3 length=0.09652 units=km
New Line.SBT_6287 phases=3 bus1=BT682001.1.2.4 bus2=BT3591.1.2.4 linecode=91_3 length=0.07187 units=km
New Line.SBT_28637 phases=3 bus1=BT3581.1.2.4 bus2=BT682001.1.2.4 linecode=91_3 length=0.05325 units=km
New Line.SBT_25782 phases=3 bus1=BT3581.1.2.4 bus2=BT617981.1.2.4 linecode=91_3 length=0.05727 units=km
New Line.SBT_22089 phases=3 bus1=BT3591.1.2.4 bus2=BT72061.1.2.4 linecode=91_3 length=0.06975 units=km
New Line.SBT_22095 phases=2 bus1=ET16_302.1.4 bus2=BT72041.1.4 linecode=60_2 length=0.08693 units=km
New Line.SBT_22096 phases=3 bus1=BT2511.1.2.4 bus2=BT2521.1.2.4 linecode=44_3 length=0.07948 units=km
New Line.SBT_22794 phases=2 bus1=BT3361.1.4 bus2=BT3371.1.4 linecode=60_2 length=0.14783 units=km
New Line.SBT_22680 phases=2 bus1=BT2521.1.4 bus2=BT2541.1.4 linecode=60_2 length=0.1285 units=km
New Line.SBT_6296 phases=3 bus1=ET16_302.1.2.4 bus2=BT2501.1.2.4 linecode=44_3 length=0.08154 units=km
New Line.SBT_6297 phases=2 bus1=BT72041.1.4 bus2=BT72031.1.4 linecode=60_2 length=0.08078 units=km
New Line.SBT_6298 phases=3 bus1=BT2501.1.2.4 bus2=BT2511.1.2.4 linecode=44_3 length=0.08041 units=km
New Line.SBT_7505 phases=2 bus1=BT2541.1.4 bus2=BT3361.1.4 linecode=60_2 length=0.1827 units=km
New Line.SBT_7506 phases=2 bus1=BT3371.1.4 bus2=BT3381.1.4 linecode=60_2 length=0.09485 units=km
New Line.SBT_7545 phases=3 bus1=BT2521.1.2.4 bus2=BT2531.1.2.4 linecode=44_3 length=0.07931 units=km
New Line.SBT_7560 phases=3 bus1=ET16_303.1.2.4 bus2=BT74771.1.2.4 linecode=91_3 length=0.10044 units=km
New Line.SBT_7561 phases=3 bus1=BT74781.1.2.4 bus2=BT74791.1.2.4 linecode=91_3 length=0.0708 units=km
New Line.SBT_7324 phases=3 bus1=BT74791.1.2.4 bus2=BT74801.1.2.4 linecode=91_3 length=0.06851 units=km
New Line.SBT_22685 phases=3 bus1=BT74781.1.2.4 bus2=BT74811.1.2.4 linecode=91_3 length=0.09513 units=km
New Line.SBT_22686 phases=3 bus1=BT74811.1.2.4 bus2=BT74821.1.2.4 linecode=91_3 length=0.05629 units=km
New Line.SBT_22687 phases=3 bus1=BT74821.1.2.4 bus2=BT74831.1.2.4 linecode=91_3 length=0.0621 units=km
New Line.SBT_22795 phases=3 bus1=ET16_303.1.2.4 bus2=BT74721.1.2.4 linecode=91_3 length=0.0808 units=km
New Line.SBT_22826 phases=3 bus1=BT74771.1.2.4 bus2=BT74781.1.2.4 linecode=91_3 length=0.09881 units=km
New Line.SBT_14006 phases=4 bus1=ET16_3130.1.2.3.4 bus2=BT18561.1.2.3.4 linecode=97_4 length=0.0528 units=km
New Line.SBT_14007 phases=2 bus1=ET16_3130.1.4 bus2=BT18571.1.4 linecode=60_2 length=0.12304 units=km
New Line.SBT_34896 phases=2 bus1=ET16_3221.1.4 bus2=BT806241.1.4 linecode=62_2 length=0.07062 units=km
New Line.SBT_26470 phases=3 bus1=ET16_3545.1.2.4 bus2=BT7331.1.2.4 linecode=59_3 length=0.06494 units=km
New Line.SBT_26496 phases=3 bus1=BT622661.1.2.4 bus2=BT622671.1.2.4 linecode=59_3 length=0.1196 units=km
New Line.SBT_14093 phases=3 bus1=BT7331.1.2.4 bus2=BT622661.1.2.4 linecode=59_3 length=0.0922 units=km
New Line.SBT_14094 phases=3 bus1=BT622671.1.2.4 bus2=BT622631.1.2.4 linecode=59_3 length=0.03748 units=km
New Line.SBT_16246 phases=2 bus1=BT17891.1.4 bus2=BT16971.1.4 linecode=86_2 length=0.0796 units=km
New Line.SBT_26512 phases=2 bus1=BT16971.1.4 bus2=BT605391.1.4 linecode=86_2 length=0.031 units=km
New Line.SBT_26614 phases=2 bus1=BT605391.1.4 bus2=BT605401.1.4 linecode=86_2 length=0.0856 units=km
New Line.SBT_5828 phases=3 bus1=ET16_3548.1.2.4 bus2=BT17891.1.2.4 linecode=44_3 length=0.08322 units=km
New Line.SBT_5829 phases=2 bus1=BT17891.1.4 bus2=BT17901.1.4 linecode=60_2 length=0.05197 units=km
New Line.SBT_27288 phases=2 bus1=BT611461.1.4 bus2=BT611451.1.4 linecode=62_2 length=0.07872 units=km
New Line.SBT_15526 phases=2 bus1=ET16_3908.1.4 bus2=BT611461.1.4 linecode=62_2 length=0.10332 units=km
New Line.SBT_15527 phases=2 bus1=BT611451.1.4 bus2=BT611442.1.4 linecode=62_2 length=0.08766 units=km
New Line.SBT_15213 phases=3 bus1=ET16_3996.1.2.4 bus2=BT450991.1.2.4 linecode=59_3 length=0.025 units=km
New Line.SBT_27416 phases=3 bus1=BT450991.1.2.4 bus2=BT566341.1.2.4 linecode=59_3 length=0.04441 units=km
New Line.SBT_26790 phases=4 bus1=ET16_3997.1.2.3.4 bus2=BT641771.1.2.3.4 linecode=73_4 length=0.03178 units=km
New Line.SBT_14624 phases=4 bus1=BT641771.1.2.3.4 bus2=BT641781.1.2.3.4 linecode=73_4 length=0.05661 units=km
New Line.SBT_34094 phases=4 bus1=ET16_4687.1.2.3.4 bus2=BT642431.1.2.3.4 linecode=74_4 length=0.04942 units=km
New Line.SBT_15963 phases=3 bus1=ET16_4736.1.2.4 bus2=BT60311.1.2.4 linecode=91_3 length=0.0494 units=km
New Line.SBT_14107 phases=2 bus1=BT63241.1.4 bus2=BT623101.1.4 linecode=62_2 length=0.06772 units=km
New Line.SBT_22709 phases=3 bus1=BT63251.1.2.4 bus2=BT63261.1.2.4 linecode=44_3 length=0.02408 units=km
New Line.SBT_22849 phases=3 bus1=BT63251.1.2.4 bus2=BT63271.1.2.4 linecode=44_3 length=0.08075 units=km
New Line.SBT_22971 phases=3 bus1=BT63231.1.2.4 bus2=BT63241.1.2.4 linecode=44_3 length=0.05281 units=km
New Line.SBT_22972 phases=3 bus1=BT63281.1.2.4 bus2=BT63291.1.2.4 linecode=44_3 length=0.06181 units=km
New Line.SBT_7807 phases=3 bus1=BT44371.1.2.4 bus2=BT44361.1.2.4 linecode=44_3 length=0.05394 units=km
New Line.SBT_7808 phases=3 bus1=BT63271.1.2.4 bus2=BT63281.1.2.4 linecode=44_3 length=0.07809 units=km
New Line.SBT_7815 phases=3 bus1=BT44361.1.2.4 bus2=BT44341.1.2.4 linecode=44_3 length=0.085 units=km
New Line.SBT_7816 phases=3 bus1=BT44341.1.2.4 bus2=BT44351.1.2.4 linecode=44_3 length=0.03574 units=km
New Line.SBT_7817 phases=3 bus1=BT63291.1.2.4 bus2=BT63301.1.2.4 linecode=44_3 length=0.04342 units=km
New Line.SBT_7598 phases=3 bus1=ET16_504.1.2.4 bus2=BT44371.1.2.4 linecode=44_3 length=0.0614 units=km
New Line.SBT_7599 phases=3 bus1=ET16_504.1.2.4 bus2=BT63251.1.2.4 linecode=44_3 length=0.07962 units=km
New Line.SBT_7600 phases=3 bus1=ET16_504.1.2.4 bus2=BT44391.1.2.4 linecode=44_3 length=0.04401 units=km
New Line.SBT_7601 phases=3 bus1=BT44391.1.2.4 bus2=BT63231.1.2.4 linecode=44_3 length=0.07211 units=km
New Line.SBT_34000 phases=2 bus1=ET16_5055.1.4 bus2=BT610692.1.4 linecode=62_2 length=0.03982 units=km
New Line.SBT_34001 phases=2 bus1=BT610692.1.4 bus2=BT610702.1.4 linecode=62_2 length=0.0907 units=km
New Line.SBT_34003 phases=2 bus1=BT610702.1.4 bus2=BT611441.1.4 linecode=62_2 length=0.09319 units=km
New Line.SBT_13153 phases=2 bus1=ET16_537.1.4 bus2=BT541511.1.4 linecode=60_2 length=0.03764 units=km
New Line.SBT_22959 phases=3 bus1=BT60201.1.2.4 bus2=BT60211.1.2.4 linecode=44_3 length=0.06478 units=km
New Line.SBT_7793 phases=3 bus1=BT60191.1.2.4 bus2=BT60201.1.2.4 linecode=44_3 length=0.08884 units=km
New Line.SBT_7794 phases=2 bus1=BT60211.1.4 bus2=BT60221.1.4 linecode=60_2 length=0.07788 units=km
New Line.SBT_7795 phases=2 bus1=BT60221.1.4 bus2=BT60231.1.4 linecode=60_2 length=0.07118 units=km
New Line.SBT_7826 phases=3 bus1=ET16_539.1.2.4 bus2=BT60181.1.2.4 linecode=44_3 length=0.08297 units=km
New Line.SBT_7593 phases=3 bus1=BT60181.1.2.4 bus2=BT60191.1.2.4 linecode=44_3 length=0.07669 units=km
New Line.SBT_5544 phases=3 bus1=ET16_5474.1.2.4 bus2=BT14021.1.2.4 linecode=44_3 length=0.0728 units=km
New Line.SBT_31061 phases=2 bus1=ET16_5730.1.4 bus2=BT41891.1.4 linecode=60_2 length=0.09003 units=km
New Line.SBT_31062 phases=2 bus1=BT41891.1.4 bus2=BT41901.1.4 linecode=60_2 length=0.0781 units=km
New Line.SBT_33251 phases=2 bus1=ET16_6019.1.4 bus2=BT790061.1.4 linecode=62_2 length=0.07702 units=km
New Line.SBT_33252 phases=2 bus1=BT790061.1.4 bus2=BT790071.1.4 linecode=62_2 length=0.07562 units=km
New Line.SBT_33399 phases=2 bus1=ET16_6082.1.4 bus2=BT30781.1.4 linecode=60_2 length=0.10058 units=km
New Line.SBT_33400 phases=2 bus1=BT30781.1.4 bus2=BT30791.1.4 linecode=60_2 length=0.12021 units=km
New Line.SBT_33401 phases=2 bus1=BT30791.1.4 bus2=BT30801.1.4 linecode=60_2 length=0.0933 units=km
New Line.SBT_35105 phases=4 bus1=ET16_6312.1.2.3.4 bus2=BT48472.1.2.3.4 linecode=74_4 length=0.04106 units=km
New Line.SBT_35173 phases=4 bus1=ET16_6318.1.2.3.4 bus2=BT74751.1.2.3.4 linecode=74_4 length=0.03715 units=km
New Line.SBT_4147 phases=3 bus1=ET34_1018.1.2.4 bus2=BT26781.1.2.4 linecode=59_3 length=0.11521 units=km
New Line.SBT_3208 phases=3 bus1=BT26771.1.2.4 bus2=BT26761.1.2.4 linecode=59_3 length=0.08329 units=km
New Line.SBT_28873 phases=2 bus1=BT26741.1.4 bus2=BT26881.1.4 linecode=62_2 length=0.05984 units=km
New Line.SBT_20870 phases=3 bus1=ET34_1018.1.2.4 bus2=BT26801.1.2.4 linecode=59_3 length=0.09932 units=km
New Line.SBT_20871 phases=3 bus1=BT26801.1.2.4 bus2=BT26811.1.2.4 linecode=59_3 length=0.08521 units=km
New Line.SBT_20343 phases=3 bus1=BT26761.1.2.4 bus2=BT26751.1.2.4 linecode=59_3 length=0.09713 units=km
New Line.SBT_20344 phases=3 bus1=BT26751.1.2.4 bus2=BT26741.1.2.4 linecode=59_3 length=0.083 units=km
New Line.SBT_18132 phases=3 bus1=BT26781.1.2.4 bus2=BT26771.1.2.4 linecode=59_3 length=0.09426 units=km
New Line.SBT_18181 phases=2 bus1=ET34_1649.1.4 bus2=BT37781.1.4 linecode=60_2 length=0.08465 units=km
New Line.SBT_11080 phases=2 bus1=BT37791.1.4 bus2=BT37801.1.4 linecode=60_2 length=0.06403 units=km
New Line.SBT_24835 phases=2 bus1=BT37781.1.4 bus2=BT37791.1.4 linecode=60_2 length=0.1396 units=km
New Line.SBT_11363 phases=3 bus1=ET34_5029.1.2.4 bus2=BT37861.1.2.4 linecode=44_3 length=0.06466 units=km
New Line.SBT_11308 phases=3 bus1=ET6_1019.1.2.4 bus2=BT37981.1.2.4 linecode=44_3 length=0.08515 units=km
New Line.SBT_11321 phases=2 bus1=BT37881.1.4 bus2=BT37871.1.4 linecode=60_2 length=0.08374 units=km
New Line.SBT_11322 phases=2 bus1=BT37871.1.4 bus2=BT37831.1.4 linecode=60_2 length=0.08668 units=km
New Line.SBT_11345 phases=3 bus1=BT37981.1.2.4 bus2=BT37971.1.2.4 linecode=44_3 length=0.09405 units=km
New Line.SBT_11346 phases=3 bus1=BT37991.1.2.4 bus2=BT48571.1.2.4 linecode=44_3 length=0.10239 units=km
New Line.SBT_24966 phases=2 bus1=BT37961.1.4 bus2=BT37881.1.4 linecode=60_2 length=0.10328 units=km
New Line.SBT_24981 phases=3 bus1=BT37981.1.2.4 bus2=BT37991.1.2.4 linecode=44_3 length=0.10062 units=km
New Line.SBT_24982 phases=3 bus1=BT37971.1.2.4 bus2=BT37961.1.2.4 linecode=44_3 length=0.08179 units=km
New Line.SBT_24791 phases=3 bus1=ET6_1139.1.2.4 bus2=BT71751.1.2.4 linecode=44_3 length=0.0722 units=km
New Line.SBT_3174 phases=3 bus1=BT71751.1.2.4 bus2=BT71761.1.2.4 linecode=44_3 length=0.10004 units=km
New Line.SBT_2986 phases=3 bus1=BT553931.1.2.4 bus2=BT71881.1.2.4 linecode=59_3 length=0.00284 units=km
New Line.SBT_2987 phases=3 bus1=BT71881.1.2.4 bus2=BT376871.1.2.4 linecode=59_3 length=0.25571 units=km
New Line.SBT_27797 phases=3 bus1=ET6_1145.1.2.4 bus2=BT553931.1.2.4 linecode=59_3 length=0.07348 units=km
New Line.SBT_17981 phases=3 bus1=ET6_1145.1.2.4 bus2=BT71901.1.2.4 linecode=59_3 length=0.03748 units=km
New Line.SBT_20222 phases=3 bus1=BT376871.1.2.4 bus2=BT376881.1.2.4 linecode=59_3 length=0.0686 units=km
New Line.SBT_15442 phases=3 bus1=BT71881.1.2.4 bus2=BT309341.1.2.4 linecode=59_3 length=0.04085 units=km
New Line.SBT_20223 phases=2 bus1=BT11421.1.4 bus2=BT11441.1.4 linecode=60_2 length=0.20911 units=km
New Line.SBT_11694 phases=3 bus1=ET6_1146.1.2.4 bus2=BT11401.1.2.4 linecode=44_3 length=0.08944 units=km
New Line.SBT_12492 phases=3 bus1=BT11401.1.2.4 bus2=BT597591.1.2.4 linecode=44_3 length=0.10062 units=km
New Line.SBT_12493 phases=2 bus1=BT597591.1.4 bus2=BT597601.1.4 linecode=60_2 length=0.07998 units=km
New Line.SBT_20625 phases=2 bus1=BT11451.1.4 bus2=BT71711.1.4 linecode=60_2 length=0.09916 units=km
New Line.SBT_2988 phases=2 bus1=ET6_1146.1.4 bus2=BT11421.1.4 linecode=60_2 length=0.07336 units=km
New Line.SBT_2989 phases=2 bus1=BT11441.1.4 bus2=BT11451.1.4 linecode=60_2 length=0.10114 units=km
New Line.SBT_21030 phases=2 bus1=ET6_1151.1.4 bus2=BT60591.1.4 linecode=60_2 length=0.13018 units=km
New Line.SBT_13972 phases=2 bus1=ET6_1151.1.4 bus2=BT475871.1.4 linecode=62_2 length=0.07072 units=km
New Line.SBT_15418 phases=4 bus1=BT60581.1.2.3.4 bus2=BT489321.1.2.3.4 linecode=73_4 length=0.09617 units=km
New Line.SBT_4429 phases=4 bus1=ET6_1151.1.2.3.4 bus2=BT60581.1.2.3.4 linecode=73_4 length=0.0846 units=km
New Line.SBT_34391 phases=3 bus1=BT461491.1.2.4 bus2=BT711881.1.2.4 linecode=59_3 length=0.04448 units=km
New Line.SBT_34386 phases=3 bus1=BT711881.1.2.4 bus2=BT332111.1.2.4 linecode=59_3 length=0.04094 units=km
New Line.SBT_34388 phases=3 bus1=ET6_1177.1.2.4 bus2=BT461491.1.2.4 linecode=59_3 length=0.06646 units=km
New Line.SBT_3417 phases=3 bus1=ET6_1178.1.2.4 bus2=BT313491.1.2.4 linecode=59_3 length=0.07473 units=km
New Line.SBT_3418 phases=3 bus1=BT313491.1.2.4 bus2=BT313501.1.2.4 linecode=59_3 length=0.05304 units=km
New Line.SBT_3228 phases=3 bus1=BT71281.1.2.4 bus2=BT71291.1.2.4 linecode=44_3 length=0.09719 units=km
New Line.SBT_3470 phases=2 bus1=BT71242.1.4 bus2=BT71251.1.4 linecode=60_2 length=0.06147 units=km
New Line.SBT_3472 phases=3 bus1=ET6_1212.1.2.4 bus2=BT71281.1.2.4 linecode=44_3 length=0.05532 units=km
New Line.SBT_3473 phases=3 bus1=ET6_1212.1.2.4 bus2=BT71271.1.2.4 linecode=44_3 length=0.03061 units=km
New Line.SBT_20489 phases=2 bus1=BT71242.1.4 bus2=BT71231.1.4 linecode=60_2 length=0.08006 units=km
New Line.SBT_13506 phases=3 bus1=ET6_1212.1.2.4 bus2=BT71242.1.2.4 linecode=44_3 length=0.11129 units=km
New Line.SBT_3491 phases=3 bus1=ET6_1238.1.2.4 bus2=BT29671.1.2.4 linecode=44_3 length=0.08271 units=km
New Line.SBT_4746 phases=3 bus1=ET6_1239.1.2.4 bus2=BT46811.1.2.4 linecode=44_3 length=0.13197 units=km
New Line.SBT_4328 phases=4 bus1=ET6_124.1.2.3.4 bus2=BT74061.1.2.3.4 linecode=73_4 length=0.05045 units=km
New Line.SBT_4329 phases=4 bus1=BT74141.1.2.3.4 bus2=BT74151.1.2.3.4 linecode=73_4 length=0.07157 units=km
New Line.SBT_4337 phases=4 bus1=BT74091.1.2.3.4 bus2=BT74081.1.2.3.4 linecode=73_4 length=0.08902 units=km
New Line.SBT_4338 phases=4 bus1=BT74041.1.2.3.4 bus2=BT74071.1.2.3.4 linecode=73_4 length=0.04198 units=km
New Line.SBT_4339 phases=4 bus1=BT74041.1.2.3.4 bus2=BT74031.1.2.3.4 linecode=73_4 length=0.07864 units=km
New Line.SBT_28806 phases=4 bus1=ET6_124.1.2.3.4 bus2=BT74141.1.2.3.4 linecode=73_4 length=0.07793 units=km
New Line.SBT_2725 phases=4 bus1=BT74031.1.2.3.4 bus2=BT74161.1.2.3.4 linecode=73_4 length=0.07809 units=km
New Line.SBT_2726 phases=2 bus1=BT74161.1.4 bus2=BT33461.1.4 linecode=60_2 length=0.08914 units=km
New Line.SBT_2727 phases=3 bus1=BT74101.1.2.4 bus2=BT74111.1.2.4 linecode=44_3 length=0.10683 units=km
New Line.SBT_2728 phases=3 bus1=BT74111.1.2.4 bus2=BT74121.1.2.4 linecode=44_3 length=0.06395 units=km
New Line.SBT_13021 phases=4 bus1=ET6_124.1.2.3.4 bus2=BT74051.1.2.3.4 linecode=73_4 length=0.05049 units=km
New Line.SBT_13022 phases=4 bus1=BT74161.1.2.3.4 bus2=BT74171.1.2.3.4 linecode=73_4 length=0.05217 units=km
New Line.SBT_20973 phases=4 bus1=BT74051.1.2.3.4 bus2=BT74041.1.2.3.4 linecode=73_4 length=0.04965 units=km
New Line.SBT_20974 phases=4 bus1=BT74061.1.2.3.4 bus2=BT74091.1.2.3.4 linecode=73_4 length=0.06768 units=km
New Line.SBT_20076 phases=3 bus1=BT74081.1.2.4 bus2=BT74101.1.2.4 linecode=44_3 length=0.13709 units=km
New Line.SBT_21105 phases=3 bus1=ET6_125.1.2.4 bus2=BT65601.1.2.4 linecode=44_3 length=0.09702 units=km
New Line.SBT_21106 phases=3 bus1=BT65601.1.2.4 bus2=BT65591.1.2.4 linecode=44_3 length=0.08981 units=km
New Line.SBT_20802 phases=2 bus1=BT65631.1.4 bus2=BT65641.1.4 linecode=60_2 length=0.07816 units=km
New Line.SBT_20803 phases=2 bus1=BT65641.1.4 bus2=BT65651.1.4 linecode=60_2 length=0.07433 units=km
New Line.SBT_3970 phases=2 bus1=BT65611.1.4 bus2=BT65621.1.4 linecode=60_2 length=0.09272 units=km
New Line.SBT_3971 phases=3 bus1=BT65591.1.2.4 bus2=BT65581.1.2.4 linecode=44_3 length=0.10375 units=km
New Line.SBT_3972 phases=2 bus1=BT65621.1.4 bus2=BT65631.1.4 linecode=60_2 length=0.10728 units=km
New Line.SBT_4564 phases=2 bus1=BT65601.1.4 bus2=BT65611.1.4 linecode=60_2 length=0.07912 units=km
New Line.SBT_31020 phases=3 bus1=BT765771.1.2.4 bus2=BT325231.1.2.4 linecode=59_3 length=0.03293 units=km
New Line.SBT_31021 phases=3 bus1=ET6_1256.1.2.4 bus2=BT765771.1.2.4 linecode=59_3 length=0.06669 units=km
New Line.SBT_30492 phases=3 bus1=ET6_1262.1.2.4 bus2=BT132171.1.2.4 linecode=47_3 length=0.04856 units=km
New Line.SBT_4103 phases=3 bus1=ET6_127.1.2.4 bus2=BT9121.1.2.4 linecode=44_3 length=0.03622 units=km
New Line.SBT_4104 phases=3 bus1=BT9121.1.2.4 bus2=BT9131.1.2.4 linecode=44_3 length=0.07809 units=km
New Line.SBT_4105 phases=3 bus1=ET6_127.1.2.4 bus2=BT9101.1.2.4 linecode=44_3 length=0.03667 units=km
New Line.SBT_4106 phases=3 bus1=BT9131.1.2.4 bus2=BT9141.1.2.4 linecode=44_3 length=0.0867 units=km
New Line.SBT_15177 phases=3 bus1=BT9101.1.2.4 bus2=BT620961.1.2.4 linecode=44_3 length=0.06053 units=km
New Line.SBT_15559 phases=3 bus1=BT620961.1.2.4 bus2=BT9092.1.2.4 linecode=44_3 length=0.09067 units=km
New Line.SBT_4378 phases=3 bus1=BT9141.1.2.4 bus2=BT356501.1.2.4 linecode=44_3 length=0.03265 units=km
New Line.SBT_20835 phases=2 bus1=BT10611.2.4 bus2=BT10621.2.4 linecode=60_2 length=0.08841 units=km
New Line.SBT_20854 phases=2 bus1=ET6_128.1.4 bus2=BT10561.1.4 linecode=60_2 length=0.10208 units=km
New Line.SBT_20855 phases=2 bus1=BT10561.1.4 bus2=BT69271.1.4 linecode=60_2 length=0.07378 units=km
New Line.SBT_20856 phases=2 bus1=BT10581.2.4 bus2=BT10591.2.4 linecode=60_2 length=0.11568 units=km
New Line.SBT_4086 phases=2 bus1=BT10601.2.4 bus2=BT10611.2.4 linecode=60_2 length=0.06248 units=km
New Line.SBT_4119 phases=2 bus1=ET6_128.2.4 bus2=BT10581.2.4 linecode=60_2 length=0.10582 units=km
New Line.SBT_4120 phases=2 bus1=BT69271.1.4 bus2=BT10501.1.4 linecode=60_2 length=0.07871 units=km
New Line.SBT_3952 phases=2 bus1=BT10501.1.4 bus2=BT10511.1.4 linecode=60_2 length=0.08188 units=km
New Line.SBT_3953 phases=2 bus1=BT10591.2.4 bus2=BT10601.2.4 linecode=60_2 length=0.13067 units=km
New Line.SBT_4010 phases=2 bus1=BT26371.1.4 bus2=BT26381.1.4 linecode=60_2 length=0.08859 units=km
New Line.SBT_4011 phases=3 bus1=BT48611.1.2.4 bus2=BT48621.1.2.4 linecode=44_3 length=0.02997 units=km
New Line.SBT_4087 phases=3 bus1=ET6_129.1.2.4 bus2=BT48591.1.2.4 linecode=84_3 length=0.10551 units=km
New Line.SBT_28804 phases=2 bus1=ET6_129.1.4 bus2=BT26371.1.4 linecode=60_2 length=0.0649 units=km
New Line.SBT_3373 phases=2 bus1=BT26391.1.4 bus2=BT250121.1.4 linecode=60_2 length=0.0653 units=km
New Line.SBT_24012 phases=3 bus1=BT48601.1.2.4 bus2=BT48611.1.2.4 linecode=44_3 length=0.10017 units=km
New Line.SBT_20793 phases=2 bus1=BT26381.1.4 bus2=BT26391.1.4 linecode=60_2 length=0.09948 units=km
New Line.SBT_3899 phases=3 bus1=BT48591.1.2.4 bus2=BT48601.1.2.4 linecode=84_3 length=0.09895 units=km
New Line.SBT_4615 phases=2 bus1=BT250121.1.4 bus2=BT26401.1.4 linecode=60_2 length=0.0722 units=km
New Line.SBT_20597 phases=2 bus1=BT68251.1.4 bus2=BT68261.1.4 linecode=62_2 length=0.09405 units=km
New Line.SBT_3662 phases=2 bus1=ET6_1344.1.4 bus2=BT68251.1.4 linecode=62_2 length=0.11233 units=km
New Line.SBT_3663 phases=2 bus1=BT68261.1.4 bus2=BT68271.1.4 linecode=62_2 length=0.10456 units=km
New Line.SBT_3664 phases=2 bus1=ET6_1445.1.4 bus2=BT151381.1.4 linecode=60_2 length=0.12081 units=km
New Line.SBT_3725 phases=2 bus1=BT151351.1.4 bus2=BT151361.1.4 linecode=60_2 length=0.06705 units=km
New Line.SBT_20598 phases=2 bus1=BT151381.1.4 bus2=BT151371.1.4 linecode=60_2 length=0.09835 units=km
New Line.SBT_20626 phases=2 bus1=BT151371.1.4 bus2=BT151351.1.4 linecode=60_2 length=0.11133 units=km
New Line.SBT_20633 phases=3 bus1=ET6_1475.1.2.4 bus2=BT11261.1.2.4 linecode=44_3 length=0.07533 units=km
New Line.SBT_20634 phases=2 bus1=BT11261.2.4 bus2=BT277501.2.4 linecode=60_2 length=0.04119 units=km
New Line.SBT_34381 phases=2 bus1=ET6_1475.1.4 bus2=BT11271.1.4 linecode=60_2 length=0.16348 units=km
New Line.SBT_34385 phases=2 bus1=ET6_1503.1.4 bus2=BT326331.1.4 linecode=60_2 length=0.07083 units=km
New Line.SBT_3966 phases=3 bus1=BT9741.1.2.4 bus2=BT9731.1.2.4 linecode=91_3 length=0.10394 units=km
New Line.SBT_31811 phases=3 bus1=BT9731.1.2.4 bus2=BT9701.1.2.4 linecode=91_3 length=0.13086 units=km
New Line.SBT_25907 phases=4 bus1=ET6_1541.1.2.3.4 bus2=BT609121.1.2.3.4 linecode=92_4 length=0.06034 units=km
New Line.SBT_20771 phases=4 bus1=BT69101.1.2.3.4 bus2=BT33451.1.2.3.4 linecode=73_4 length=0.11022 units=km
New Line.SBT_21123 phases=2 bus1=BT9711.1.4 bus2=BT9721.1.4 linecode=60_2 length=0.0992 units=km
New Line.SBT_21361 phases=4 bus1=BT609121.1.2.3.4 bus2=BT69101.1.2.3.4 linecode=92_4 length=0.04805 units=km
New Line.SBT_5012 phases=3 bus1=ET6_1541.1.2.4 bus2=BT9741.1.2.4 linecode=91_3 length=0.10325 units=km
New Line.SBT_4593 phases=2 bus1=BT9701.1.4 bus2=BT9711.1.4 linecode=60_2 length=0.0806 units=km
New Line.SBT_24513 phases=2 bus1=ET6_1960.1.4 bus2=BT331941.1.4 linecode=77_2 length=0.14904 units=km
New Line.SBT_24630 phases=2 bus1=BT331941.1.4 bus2=BT332021.1.4 linecode=77_2 length=0.08006 units=km
New Line.SBT_35525 phases=3 bus1=ET6_1960.1.2.4 bus2=BT331962.1.2.4 linecode=76_3 length=0.10153 units=km
New Line.SBT_4617 phases=2 bus1=ET6_2064.2.4 bus2=BT330981.2.4 linecode=77_2 length=0.01612 units=km
New Line.SBT_4618 phases=2 bus1=BT330981.2.4 bus2=BT330991.2.4 linecode=77_2 length=0.17405 units=km
New Line.SBT_4619 phases=2 bus1=ET6_2887.1.4 bus2=BT442091.1.4 linecode=62_2 length=0.0525 units=km
New Line.SBT_1863 phases=2 bus1=ET6_2887.2.4 bus2=BT623411.2.4 linecode=62_2 length=0.11504 units=km
New Line.SBT_13730 phases=2 bus1=BT597481.1.4 bus2=BT302821.1.4 linecode=62_2 length=0.08905 units=km
New Line.SBT_12631 phases=2 bus1=ET6_3010.1.4 bus2=BT597431.1.4 linecode=62_2 length=0.08927 units=km
New Line.SBT_12632 phases=2 bus1=BT597431.1.4 bus2=BT597441.1.4 linecode=62_2 length=0.06812 units=km
New Line.SBT_12633 phases=2 bus1=BT597441.1.4 bus2=BT597451.1.4 linecode=62_2 length=0.05664 units=km
New Line.SBT_12437 phases=2 bus1=BT597461.1.4 bus2=BT597471.1.4 linecode=62_2 length=0.04751 units=km
New Line.SBT_25580 phases=2 bus1=ET6_3010.1.4 bus2=BT597461.1.4 linecode=62_2 length=0.12914 units=km
New Line.SBT_25581 phases=2 bus1=BT597471.1.4 bus2=BT597481.1.4 linecode=62_2 length=0.0542 units=km
New Line.SBT_13749 phases=3 bus1=ET6_3011.1.2.4 bus2=BT475931.1.2.4 linecode=44_3 length=0.0528 units=km
New Line.SBT_13750 phases=3 bus1=BT475931.1.2.4 bus2=BT475941.1.2.4 linecode=44_3 length=0.07325 units=km
New Line.SBT_13751 phases=2 bus1=BT475941.1.4 bus2=BT475951.1.4 linecode=60_2 length=0.12692 units=km
New Line.SBT_13752 phases=2 bus1=BT475951.1.4 bus2=BT475961.1.4 linecode=60_2 length=0.11788 units=km
New Line.SBT_13081 phases=3 bus1=ET6_3012.1.2.4 bus2=BT615291.1.2.4 linecode=44_3 length=0.09753 units=km
New Line.SBT_13255 phases=3 bus1=ET6_3012.1.2.4 bus2=BT615311.1.2.4 linecode=44_3 length=0.05787 units=km
New Line.SBT_13256 phases=2 bus1=BT615271.1.4 bus2=BT615261.1.4 linecode=60_2 length=0.14 units=km
New Line.SBT_26027 phases=3 bus1=BT615291.1.2.4 bus2=BT615301.1.2.4 linecode=44_3 length=0.06441 units=km
New Line.SBT_26028 phases=2 bus1=ET6_3012.1.4 bus2=BT615271.1.4 linecode=60_2 length=0.12618 units=km
New Line.SBT_26310 phases=2 bus1=ET6_3013.1.4 bus2=BT475911.1.4 linecode=60_2 length=0.04632 units=km
New Line.SBT_27518 phases=2 bus1=BT703851.1.4 bus2=BT703861.1.4 linecode=62_2 length=0.10599 units=km
New Line.SBT_15929 phases=2 bus1=ET6_3013.1.4 bus2=BT703851.1.4 linecode=62_2 length=0.07845 units=km
New Line.SBT_15930 phases=2 bus1=BT703861.1.4 bus2=BT703841.1.4 linecode=62_2 length=0.1051 units=km
New Line.SBT_16683 phases=2 bus1=BT743931.1.4 bus2=BT743941.1.4 linecode=62_2 length=0.07286 units=km
New Line.SBT_14629 phases=2 bus1=BT474641.1.4 bus2=BT8871.1.4 linecode=62_2 length=0.09946 units=km
New Line.SBT_14630 phases=2 bus1=BT8871.1.4 bus2=BT8881.1.4 linecode=62_2 length=0.05057 units=km
New Line.SBT_13030 phases=2 bus1=BT474671.2.4 bus2=BT474681.2.4 linecode=62_2 length=0.06294 units=km
New Line.SBT_27937 phases=2 bus1=ET6_3019.1.4 bus2=BT743931.1.4 linecode=62_2 length=0.08705 units=km
New Line.SBT_25906 phases=2 bus1=ET6_3019.2.4 bus2=BT474671.2.4 linecode=62_2 length=0.116 units=km
New Line.SBT_26794 phases=2 bus1=ET6_3019.1.4 bus2=BT474641.1.4 linecode=62_2 length=0.16832 units=km
New Line.SBT_26034 phases=2 bus1=BT614861.1.4 bus2=BT614871.1.4 linecode=62_2 length=0.09862 units=km
New Line.SBT_25935 phases=2 bus1=ET6_3142.1.4 bus2=BT614851.1.4 linecode=62_2 length=0.09434 units=km
New Line.SBT_25939 phases=2 bus1=BT614931.2.4 bus2=BT614941.2.4 linecode=62_2 length=0.13524 units=km
New Line.SBT_25895 phases=3 bus1=ET6_3142.1.2.4 bus2=BT614891.1.2.4 linecode=59_3 length=0.11621 units=km
New Line.SBT_13089 phases=3 bus1=BT614891.1.2.4 bus2=BT614901.1.2.4 linecode=59_3 length=0.103 units=km
New Line.SBT_13090 phases=3 bus1=BT614901.1.2.4 bus2=BT614931.1.2.4 linecode=59_3 length=0.1231 units=km
New Line.SBT_13265 phases=2 bus1=BT614851.1.4 bus2=BT614861.1.4 linecode=62_2 length=0.10448 units=km
New Line.SBT_13266 phases=2 bus1=BT614871.1.4 bus2=BT614881.1.4 linecode=62_2 length=0.08637 units=km
New Line.SBT_13219 phases=2 bus1=BT614941.2.4 bus2=BT614951.2.4 linecode=62_2 length=0.05522 units=km
New Line.SBT_18437 phases=3 bus1=ET6_3256.1.2.4 bus2=BT26451.1.2.4 linecode=44_3 length=0.08072 units=km
New Line.SBT_10155 phases=3 bus1=BT26671.1.2.4 bus2=BT26681.1.2.4 linecode=44_3 length=0.09677 units=km
New Line.SBT_9360 phases=3 bus1=BT26451.1.2.4 bus2=BT26671.1.2.4 linecode=44_3 length=0.09985 units=km
New Line.SBT_9361 phases=3 bus1=ET6_3256.1.2.4 bus2=BT26661.1.2.4 linecode=59_3 length=0.04297 units=km
New Line.SBT_26269 phases=2 bus1=ET6_3563.1.4 bus2=BT638531.1.4 linecode=62_2 length=0.07908 units=km
New Line.SBT_25244 phases=2 bus1=BT624061.1.4 bus2=BT332011.1.4 linecode=62_2 length=0.07855 units=km
New Line.SBT_11826 phases=2 bus1=BT554561.1.4 bus2=BT624061.1.4 linecode=62_2 length=0.10222 units=km
New Line.SBT_14323 phases=2 bus1=ET6_3613.1.4 bus2=BT575631.1.4 linecode=62_2 length=0.12612 units=km
New Line.SBT_17733 phases=2 bus1=ET6_3613.1.4 bus2=BT106791.1.4 linecode=62_2 length=0.10002 units=km
New Line.SBT_17734 phases=2 bus1=BT106791.1.4 bus2=BT106821.1.4 linecode=62_2 length=0.10474 units=km
New Line.SBT_6793 phases=2 bus1=BT575631.1.4 bus2=BT554561.1.4 linecode=62_2 length=0.12238 units=km
New Line.SBT_4577 phases=3 bus1=ET6_3819.1.2.4 bus2=BT66551.1.2.4 linecode=44_3 length=0.09774 units=km
New Line.SBT_4579 phases=2 bus1=BT66551.1.4 bus2=BT66541.1.4 linecode=60_2 length=0.08052 units=km
New Line.SBT_12998 phases=2 bus1=BT66541.1.4 bus2=BT627021.1.4 linecode=60_2 length=0.08576 units=km
New Line.SBT_20804 phases=3 bus1=BT66571.1.2.4 bus2=BT66581.1.2.4 linecode=44_3 length=0.0764 units=km
New Line.SBT_4032 phases=3 bus1=ET6_3819.1.2.4 bus2=BT66571.1.2.4 linecode=44_3 length=0.10599 units=km
New Line.SBT_4094 phases=2 bus1=BT627021.1.4 bus2=BT66531.1.4 linecode=60_2 length=0.11936 units=km
New Line.SBT_4102 phases=2 bus1=BT66521.1.4 bus2=BT66511.1.4 linecode=60_2 length=0.12095 units=km
New Line.SBT_4359 phases=2 bus1=BT66531.1.4 bus2=BT66521.1.4 linecode=60_2 length=0.12503 units=km
New Line.SBT_4093 phases=3 bus1=BT8921.1.2.4 bus2=BT8941.1.2.4 linecode=44_3 length=0.13647 units=km
New Line.SBT_4031 phases=3 bus1=BT8891.1.2.4 bus2=BT66582.1.2.4 linecode=44_3 length=0.08023 units=km
New Line.SBT_20840 phases=3 bus1=BT8921.1.2.4 bus2=BT8931.1.2.4 linecode=44_3 length=0.05707 units=km
New Line.SBT_4580 phases=3 bus1=ET6_3820.1.2.4 bus2=BT8921.1.2.4 linecode=44_3 length=0.05825 units=km
New Line.SBT_4578 phases=3 bus1=ET6_3820.1.2.4 bus2=BT8901.1.2.4 linecode=44_3 length=0.07793 units=km
New Line.SBT_4576 phases=3 bus1=BT8901.1.2.4 bus2=BT8891.1.2.4 linecode=44_3 length=0.0755 units=km
New Line.SBT_20845 phases=3 bus1=BT9091.1.2.4 bus2=BT9081.1.2.4 linecode=76_3 length=0.07316 units=km
New Line.SBT_20853 phases=3 bus1=ET6_4249.1.2.4 bus2=BT9091.1.2.4 linecode=76_3 length=0.08545 units=km
New Line.SBT_4118 phases=3 bus1=ET6_4249.1.2.4 bus2=BT326261.1.2.4 linecode=76_3 length=0.06657 units=km
New Line.SBT_28453 phases=4 bus1=ET6_5085.1.2.3.4 bus2=BT731551.1.2.3.4 linecode=73_4 length=0.08163 units=km
New Line.SBT_17593 phases=4 bus1=BT731551.1.2.3.4 bus2=BT731561.1.2.3.4 linecode=73_4 length=0.05573 units=km
New Line.SBT_34378 phases=4 bus1=ET6_6153.1.2.3.4 bus2=BT10391.1.2.3.4 linecode=74_4 length=0.04296 units=km
New Line.SBT_34379 phases=4 bus1=BT10391.1.2.3.4 bus2=BT10401.1.2.3.4 linecode=74_4 length=0.02285 units=km
New Line.SBT_34382 phases=4 bus1=BT800551.1.2.3.4 bus2=BT197792.1.2.3.4 linecode=74_4 length=0.04076 units=km
New Line.SBT_34383 phases=4 bus1=BT800541.1.2.3.4 bus2=BT295341.1.2.3.4 linecode=74_4 length=0.03046 units=km
New Line.SBT_34384 phases=4 bus1=BT295341.1.2.3.4 bus2=BT295361.1.2.3.4 linecode=74_4 length=0.04913 units=km
New Line.SBT_34389 phases=4 bus1=BT295361.1.2.3.4 bus2=BT474991.1.2.3.4 linecode=74_4 length=0.03869 units=km
New Line.SBT_34390 phases=2 bus1=BT474991.1.4 bus2=BT475001.1.4 linecode=60_2 length=0.12443 units=km
New Line.SBT_34392 phases=4 bus1=BT800551.1.2.3.4 bus2=BT800541.1.2.3.4 linecode=74_4 length=0.03148 units=km
New Line.SBT_34393 phases=4 bus1=BT10401.1.2.3.4 bus2=BT800551.1.2.3.4 linecode=74_4 length=0.03303 units=km
New Line.SBT_34893 phases=2 bus1=ET6_6272.1.4 bus2=BT806211.1.4 linecode=62_2 length=0.04084 units=km
New Line.SBT_34894 phases=2 bus1=BT806211.1.4 bus2=BT806221.1.4 linecode=62_2 length=0.05437 units=km
New Line.SBT_34898 phases=2 bus1=BT619041.1.4 bus2=BT806261.1.4 linecode=62_2 length=0.03416 units=km
New Line.SBT_28854 phases=2 bus1=ET6_6273.1.4 bus2=BT619031.1.4 linecode=62_2 length=0.09368 units=km
New Line.SBT_25976 phases=2 bus1=BT619031.1.4 bus2=BT619041.1.4 linecode=62_2 length=0.08702 units=km
New Line.SBT_35526 phases=3 bus1=BT331981.1.2.4 bus2=BT331971.1.2.4 linecode=76_3 length=0.0908 units=km
New Line.SBT_35527 phases=3 bus1=ET6_6394.1.2.4 bus2=BT331981.1.2.4 linecode=76_3 length=0.09437 units=km
New Line.SBT_35529 phases=3 bus1=ET6_6394.1.2.4 bus2=BT332001.1.2.4 linecode=76_3 length=0.09526 units=km
New Line.SBT_35530 phases=3 bus1=ET6_6394.1.2.4 bus2=BT332031.1.2.4 linecode=76_3 length=0.09745 units=km
New Line.SBT_35531 phases=3 bus1=BT332031.1.2.4 bus2=BT332041.1.2.4 linecode=76_3 length=0.05701 units=km
New Line.SBT_35532 phases=3 bus1=BT332041.1.2.4 bus2=BT332051.1.2.4 linecode=76_3 length=0.1042 units=km
New Line.SBT_35533 phases=3 bus1=BT391341.1.2.4 bus2=BT332061.1.2.4 linecode=76_3 length=0.0608 units=km
New Line.SBT_35534 phases=2 bus1=BT332061.1.4 bus2=BT332071.1.4 linecode=77_2 length=0.1609 units=km
New Line.SBT_35535 phases=2 bus1=BT332031.1.4 bus2=BT376811.1.4 linecode=62_2 length=0.06604 units=km
New Line.SBT_35536 phases=3 bus1=BT332051.1.2.4 bus2=BT391341.1.2.4 linecode=76_3 length=0.10683 units=km
New Line.SBT_35524 phases=3 bus1=BT331971.1.2.4 bus2=BT331961.1.2.4 linecode=76_3 length=0.08006 units=km
New Line.SBT_18035 phases=3 bus1=BT7741.1.2.4 bus2=BT7751.1.2.4 linecode=44_3 length=0.06401 units=km
New Line.SBT_21140 phases=2 bus1=ET6_725.1.4 bus2=BT61411.1.4 linecode=60_2 length=0.10647 units=km
New Line.SBT_21141 phases=2 bus1=BT61411.1.4 bus2=BT2041.1.4 linecode=60_2 length=0.10824 units=km
New Line.SBT_21142 phases=2 bus1=BT2051.1.4 bus2=BT61391.1.4 linecode=60_2 length=0.09155 units=km
New Line.SBT_4568 phases=3 bus1=ET6_725.1.2.4 bus2=BT7731.1.2.4 linecode=44_3 length=0.08801 units=km
New Line.SBT_4623 phases=3 bus1=BT7731.1.2.4 bus2=BT7741.1.2.4 linecode=44_3 length=0.07801 units=km
New Line.SBT_4624 phases=2 bus1=BT2041.1.4 bus2=BT2051.1.4 linecode=60_2 length=0.10492 units=km
New Line.SBT_4625 phases=2 bus1=BT61391.1.4 bus2=BT61401.1.4 linecode=60_2 length=0.06488 units=km
New Line.SBT_4626 phases=4 bus1=ET6_727.1.2.3.4 bus2=BT57531.1.2.3.4 linecode=97_4 length=0.07406 units=km
New Line.SBT_4380 phases=4 bus1=BT57531.1.2.3.4 bus2=BT57541.1.2.3.4 linecode=97_4 length=0.05901 units=km
New Line.SBT_20827 phases=4 bus1=BT21351.1.2.3.4 bus2=BT22981.1.2.3.4 linecode=97_4 length=0.09604 units=km
New Line.SBT_3790 phases=4 bus1=ET6_728.1.2.3.4 bus2=BT21331.1.2.3.4 linecode=97_4 length=0.03138 units=km
New Line.SBT_3791 phases=4 bus1=ET6_728.1.2.3.4 bus2=BT21341.1.2.3.4 linecode=97_4 length=0.0779 units=km
New Line.SBT_4069 phases=4 bus1=BT21341.1.2.3.4 bus2=BT21351.1.2.3.4 linecode=97_4 length=0.10704 units=km
New Line.SBT_20828 phases=4 bus1=ET6_729.1.2.3.4 bus2=BT46661.1.2.3.4 linecode=97_4 length=0.12463 units=km
New Line.SBT_20690 phases=2 bus1=BT37511.1.4 bus2=BT37521.1.4 linecode=60_2 length=0.13282 units=km
New Line.SBT_20691 phases=2 bus1=BT37531.1.4 bus2=BT23131.1.4 linecode=60_2 length=0.09762 units=km
New Line.SBT_12635 phases=4 bus1=BT37481.1.2.3.4 bus2=BT37471.1.2.3.4 linecode=97_4 length=0.09051 units=km
New Line.SBT_12020 phases=4 bus1=BT37491.1.2.3.4 bus2=BT371611.1.2.3.4 linecode=97_4 length=0.08839 units=km
New Line.SBT_3802 phases=2 bus1=ET6_730.1.4 bus2=BT37511.1.4 linecode=60_2 length=0.09122 units=km
New Line.SBT_3828 phases=2 bus1=BT37521.1.4 bus2=BT37531.1.4 linecode=60_2 length=0.06762 units=km
New Line.SBT_3750 phases=4 bus1=ET6_730.1.2.3.4 bus2=BT37491.1.2.3.4 linecode=97_4 length=0.1096 units=km
New Line.SBT_25351 phases=4 bus1=BT371611.1.2.3.4 bus2=BT37481.1.2.3.4 linecode=97_4 length=0.08134 units=km
New Line.SBT_3829 phases=3 bus1=ET6_733.1.2.4 bus2=BT33441.1.2.4 linecode=44_3 length=0.11364 units=km
New Line.SBT_3835 phases=4 bus1=BT64591.1.2.3.4 bus2=BT64601.1.2.3.4 linecode=73_4 length=0.0792 units=km
New Line.SBT_3836 phases=4 bus1=BT64601.1.2.3.4 bus2=BT64611.1.2.3.4 linecode=73_4 length=0.06762 units=km
New Line.SBT_17923 phases=4 bus1=ET6_737.1.2.3.4 bus2=BT681991.1.2.3.4 linecode=58_4 length=0.04491 units=km
New Line.SBT_20696 phases=4 bus1=BT64581.1.2.3.4 bus2=BT64591.1.2.3.4 linecode=73_4 length=0.1006 units=km
New Line.SBT_20697 phases=4 bus1=BT64611.1.2.3.4 bus2=BT64621.1.2.3.4 linecode=73_4 length=0.08016 units=km
New Line.SBT_21147 phases=4 bus1=BT681991.1.2.3.4 bus2=BT64581.1.2.3.4 linecode=58_4 length=0.05125 units=km
New Line.SBT_3837 phases=2 bus1=ET6_738.1.4 bus2=BT261.1.4 linecode=60_2 length=0.1136 units=km
New Line.SBT_5396 phases=4 bus1=ET6_809.1.2.3.4 bus2=BT135461.1.2.3.4 linecode=97_4 length=0.07272 units=km
New Line.SBT_5398 phases=4 bus1=BT135461.1.2.3.4 bus2=BT135471.1.2.3.4 linecode=97_4 length=0.07654 units=km
New Line.SBT_21281 phases=4 bus1=ET6_810.1.2.3.4 bus2=BT18011.1.2.3.4 linecode=97_4 length=0.07324 units=km
